data_IrO2\(1\1\0)\(2)
_audit_creation_date              2023-01-09
_audit_creation_method            'Materials Studio'
_symmetry_space_group_name_H-M    'P1'
_symmetry_Int_Tables_number       1
_symmetry_cell_setting            triclinic
loop_
_symmetry_equiv_pos_as_xyz
  x,y,z
_cell_length_a                    6.3534
_cell_length_b                    12.7430
_cell_length_c                    34.7096
_cell_angle_alpha                 90.0000
_cell_angle_beta                  90.0000
_cell_angle_gamma                 90.0000
loop_
_atom_site_label
_atom_site_type_symbol
_atom_site_fract_x
_atom_site_fract_y
_atom_site_fract_z
_atom_site_U_iso_or_equiv
_atom_site_adp_type
_atom_site_occupancy
Ir1    Ir    0.25000   0.25000   0.34476   0.00000  Uiso   1.00
Ir2    Ir    0.25000   0.00000   0.43655   0.00000  Uiso   1.00
Ir3    Ir    0.25000   0.25000   0.52833   0.00000  Uiso   1.00
Ir4    Ir    0.25000   0.00000   0.62011   0.00000  Uiso   1.00
Ir5    Ir    0.25000   0.25000   0.71190   0.00000  Uiso   1.00
Ir6    Ir    0.00000   0.00000   0.34476   0.00000  Uiso   1.00
Ir7    Ir    0.00000   0.25000   0.43655   0.00000  Uiso   1.00
Ir8    Ir    0.00000   0.00000   0.52833   0.00000  Uiso   1.00
Ir9    Ir    0.00000   0.25000   0.62011   0.00000  Uiso   1.00
Ir10   Ir    0.00000   0.00000   0.71190   0.00000  Uiso   1.00
O11    O     0.00000   0.00000   0.28810   0.00000  Uiso   1.00
O12    O     0.00000   0.25000   0.37989   0.00000  Uiso   1.00
O13    O     0.00000   0.00000   0.47167   0.00000  Uiso   1.00
O14    O     0.00000   0.25000   0.56345   0.00000  Uiso   1.00
O15    O     0.00000   0.00000   0.65524   0.00000  Uiso   1.00
O16    O     0.25000   0.09567   0.34476   0.00000  Uiso   1.00
O17    O     0.25000   0.34567   0.43655   0.00000  Uiso   1.00
O18    O     0.25000   0.09567   0.52833   0.00000  Uiso   1.00
O19    O     0.25000   0.34567   0.62011   0.00000  Uiso   1.00
O20    O     0.25000   0.09567   0.71190   0.00000  Uiso   1.00
O21    O     0.00000   0.25000   0.30964   0.00000  Uiso   1.00
O22    O     0.00000   0.00000   0.40142   0.00000  Uiso   1.00
O23    O     0.00000   0.25000   0.49321   0.00000  Uiso   1.00
O24    O     0.00000   0.00000   0.58499   0.00000  Uiso   1.00
O25    O     0.00000   0.25000   0.67677   0.00000  Uiso   1.00
O26    O     0.25000   0.40433   0.34476   0.00000  Uiso   1.00
O27    O     0.25000   0.15433   0.43655   0.00000  Uiso   1.00
O28    O     0.25000   0.40433   0.52833   0.00000  Uiso   1.00
O29    O     0.25000   0.15433   0.62011   0.00000  Uiso   1.00
O30    O     0.25000   0.40433   0.71190   0.00000  Uiso   1.00
Ir31   Ir    0.75000   0.25000   0.34476   0.00000  Uiso   1.00
Ir32   Ir    0.75000   0.00000   0.43655   0.00000  Uiso   1.00
Ir33   Ir    0.75000   0.25000   0.52833   0.00000  Uiso   1.00
Ir34   Ir    0.75000   0.00000   0.62011   0.00000  Uiso   1.00
Ir35   Ir    0.75000   0.25000   0.71190   0.00000  Uiso   1.00
Ir36   Ir    0.50000   0.00000   0.34476   0.00000  Uiso   1.00
Ir37   Ir    0.50000   0.25000   0.43655   0.00000  Uiso   1.00
Ir38   Ir    0.50000   0.00000   0.52833   0.00000  Uiso   1.00
Ir39   Ir    0.50000   0.25000   0.62011   0.00000  Uiso   1.00
Ir40   Ir    0.50000   0.00000   0.71190   0.00000  Uiso   1.00
O41    O     0.50000   0.00000   0.28810   0.00000  Uiso   1.00
O42    O     0.50000   0.25000   0.37989   0.00000  Uiso   1.00
O43    O     0.50000   0.00000   0.47167   0.00000  Uiso   1.00
O44    O     0.50000   0.25000   0.56345   0.00000  Uiso   1.00
O45    O     0.50000   0.00000   0.65524   0.00000  Uiso   1.00
O46    O     0.75000   0.09567   0.34476   0.00000  Uiso   1.00
O47    O     0.75000   0.34567   0.43655   0.00000  Uiso   1.00
O48    O     0.75000   0.09567   0.52833   0.00000  Uiso   1.00
O49    O     0.75000   0.34567   0.62011   0.00000  Uiso   1.00
O50    O     0.75000   0.09567   0.71190   0.00000  Uiso   1.00
O51    O     0.50000   0.25000   0.30964   0.00000  Uiso   1.00
O52    O     0.50000   0.00000   0.40142   0.00000  Uiso   1.00
O53    O     0.50000   0.25000   0.49321   0.00000  Uiso   1.00
O54    O     0.50000   0.00000   0.58499   0.00000  Uiso   1.00
O55    O     0.50000   0.25000   0.67677   0.00000  Uiso   1.00
O56    O     0.75000   0.40433   0.34476   0.00000  Uiso   1.00
O57    O     0.75000   0.15433   0.43655   0.00000  Uiso   1.00
O58    O     0.75000   0.40433   0.52833   0.00000  Uiso   1.00
O59    O     0.75000   0.15433   0.62011   0.00000  Uiso   1.00
O60    O     0.75000   0.40433   0.71190   0.00000  Uiso   1.00
Ir61   Ir    0.25000   0.75000   0.34476   0.00000  Uiso   1.00
Ir62   Ir    0.25000   0.50000   0.43655   0.00000  Uiso   1.00
Ir63   Ir    0.25000   0.75000   0.52833   0.00000  Uiso   1.00
Ir64   Ir    0.25000   0.50000   0.62011   0.00000  Uiso   1.00
Ir65   Ir    0.25000   0.75000   0.71190   0.00000  Uiso   1.00
Ir66   Ir    0.00000   0.50000   0.34476   0.00000  Uiso   1.00
Ir67   Ir    0.00000   0.75000   0.43655   0.00000  Uiso   1.00
Ir68   Ir    0.00000   0.50000   0.52833   0.00000  Uiso   1.00
Ir69   Ir    0.00000   0.75000   0.62011   0.00000  Uiso   1.00
Ir70   Ir    0.00000   0.50000   0.71190   0.00000  Uiso   1.00
O71    O     0.00000   0.50000   0.28810   0.00000  Uiso   1.00
O72    O     0.00000   0.75000   0.37989   0.00000  Uiso   1.00
O73    O     0.00000   0.50000   0.47167   0.00000  Uiso   1.00
O74    O     0.00000   0.75000   0.56345   0.00000  Uiso   1.00
O75    O     0.00000   0.50000   0.65524   0.00000  Uiso   1.00
O76    O     0.25000   0.59567   0.34476   0.00000  Uiso   1.00
O77    O     0.25000   0.84567   0.43655   0.00000  Uiso   1.00
O78    O     0.25000   0.59567   0.52833   0.00000  Uiso   1.00
O79    O     0.25000   0.84567   0.62011   0.00000  Uiso   1.00
O80    O     0.25000   0.59567   0.71190   0.00000  Uiso   1.00
O81    O     0.00000   0.75000   0.30964   0.00000  Uiso   1.00
O82    O     0.00000   0.50000   0.40142   0.00000  Uiso   1.00
O83    O     0.00000   0.75000   0.49321   0.00000  Uiso   1.00
O84    O     0.00000   0.50000   0.58499   0.00000  Uiso   1.00
O85    O     0.00000   0.75000   0.67677   0.00000  Uiso   1.00
O86    O     0.25000   0.90433   0.34476   0.00000  Uiso   1.00
O87    O     0.25000   0.65433   0.43655   0.00000  Uiso   1.00
O88    O     0.25000   0.90433   0.52833   0.00000  Uiso   1.00
O89    O     0.25000   0.65433   0.62011   0.00000  Uiso   1.00
O90    O     0.25000   0.90433   0.71190   0.00000  Uiso   1.00
Ir91   Ir    0.75000   0.75000   0.34476   0.00000  Uiso   1.00
Ir92   Ir    0.75000   0.50000   0.43655   0.00000  Uiso   1.00
Ir93   Ir    0.75000   0.75000   0.52833   0.00000  Uiso   1.00
Ir94   Ir    0.75000   0.50000   0.62011   0.00000  Uiso   1.00
Ir95   Ir    0.75000   0.75000   0.71190   0.00000  Uiso   1.00
Ir96   Ir    0.50000   0.50000   0.34476   0.00000  Uiso   1.00
Ir97   Ir    0.50000   0.75000   0.43655   0.00000  Uiso   1.00
Ir98   Ir    0.50000   0.50000   0.52833   0.00000  Uiso   1.00
Ir99   Ir    0.50000   0.75000   0.62011   0.00000  Uiso   1.00
Ir100  Ir    0.50000   0.50000   0.71190   0.00000  Uiso   1.00
O101   O     0.50000   0.50000   0.28810   0.00000  Uiso   1.00
O102   O     0.50000   0.75000   0.37989   0.00000  Uiso   1.00
O103   O     0.50000   0.50000   0.47167   0.00000  Uiso   1.00
O104   O     0.50000   0.75000   0.56345   0.00000  Uiso   1.00
O105   O     0.50000   0.50000   0.65524   0.00000  Uiso   1.00
O106   O     0.75000   0.59567   0.34476   0.00000  Uiso   1.00
O107   O     0.75000   0.84567   0.43655   0.00000  Uiso   1.00
O108   O     0.75000   0.59567   0.52833   0.00000  Uiso   1.00
O109   O     0.75000   0.84567   0.62011   0.00000  Uiso   1.00
O110   O     0.75000   0.59567   0.71190   0.00000  Uiso   1.00
O111   O     0.50000   0.75000   0.30964   0.00000  Uiso   1.00
O112   O     0.50000   0.50000   0.40142   0.00000  Uiso   1.00
O113   O     0.50000   0.75000   0.49321   0.00000  Uiso   1.00
O114   O     0.50000   0.50000   0.58499   0.00000  Uiso   1.00
O115   O     0.50000   0.75000   0.67677   0.00000  Uiso   1.00
O116   O     0.75000   0.90433   0.34476   0.00000  Uiso   1.00
O117   O     0.75000   0.65433   0.43655   0.00000  Uiso   1.00
O118   O     0.75000   0.90433   0.52833   0.00000  Uiso   1.00
O119   O     0.75000   0.65433   0.62011   0.00000  Uiso   1.00
O120   O     0.75000   0.90433   0.71190   0.00000  Uiso   1.00
loop_
_geom_bond_atom_site_label_1
_geom_bond_atom_site_label_2
_geom_bond_distance
_geom_bond_site_symmetry_2
_ccdc_geom_bond_type
Ir1    O12     2.002   .     S
Ir1    O42     2.002   .     S
Ir1    O16     1.967   .     S
Ir1    O21     2.002   .     S
Ir1    O51     2.002   .     S
Ir1    O26     1.967   .     S
Ir2    O13     2.002   .     S
Ir2    O43     2.002   .     S
Ir2    O77     1.967   1_545 S
Ir2    O22     2.002   .     S
Ir2    O52     2.002   .     S
Ir2    O27     1.967   .     S
Ir3    O14     2.002   .     S
Ir3    O44     2.002   .     S
Ir3    O18     1.967   .     S
Ir3    O23     2.002   .     S
Ir3    O53     2.002   .     S
Ir3    O28     1.967   .     S
Ir4    O15     2.002   .     S
Ir4    O45     2.002   .     S
Ir4    O79     1.967   1_545 S
Ir4    O24     2.002   .     S
Ir4    O54     2.002   .     S
Ir4    O29     1.967   .     S
Ir5    O20     1.967   .     S
Ir5    O25     2.002   .     S
Ir5    O55     2.002   .     S
Ir5    O30     1.967   .     S
Ir6    O11     1.967   .     S
Ir6    O16     2.002   .     S
Ir6    O46     2.002   1_455 S
Ir6    O22     1.967   .     S
Ir6    O86     2.002   1_545 S
Ir6    O116    2.002   1_445 S
Ir7    O12     1.967   .     S
Ir7    O17     2.002   .     S
Ir7    O47     2.002   1_455 S
Ir7    O23     1.967   .     S
Ir7    O27     2.002   .     S
Ir7    O57     2.002   1_455 S
Ir8    O13     1.967   .     S
Ir8    O18     2.002   .     S
Ir8    O48     2.002   1_455 S
Ir8    O24     1.967   .     S
Ir8    O88     2.002   1_545 S
Ir8    O118    2.002   1_445 S
Ir9    O14     1.967   .     S
Ir9    O19     2.002   .     S
Ir9    O49     2.002   1_455 S
Ir9    O25     1.967   .     S
Ir9    O29     2.002   .     S
Ir9    O59     2.002   1_455 S
Ir10   O15     1.967   .     S
Ir10   O20     2.002   .     S
Ir10   O50     2.002   1_455 S
Ir10   O90     2.002   1_545 S
Ir10   O120    2.002   1_445 S
O12    Ir31    2.002   1_455 S
O13    Ir32    2.002   1_455 S
O14    Ir33    2.002   1_455 S
O15    Ir34    2.002   1_455 S
O16    Ir36    2.002   .     S
O17    Ir62    1.967   .     S
O17    Ir37    2.002   .     S
O18    Ir38    2.002   .     S
O19    Ir64    1.967   .     S
O19    Ir39    2.002   .     S
O20    Ir40    2.002   .     S
O21    Ir31    2.002   1_455 S
O22    Ir32    2.002   1_455 S
O23    Ir33    2.002   1_455 S
O24    Ir34    2.002   1_455 S
O25    Ir35    2.002   1_455 S
O26    Ir66    2.002   .     S
O26    Ir96    2.002   .     S
O27    Ir37    2.002   .     S
O28    Ir68    2.002   .     S
O28    Ir98    2.002   .     S
O29    Ir39    2.002   .     S
O30    Ir70    2.002   .     S
O30    Ir100   2.002   .     S
Ir31   O42     2.002   .     S
Ir31   O12     2.002   1_655 S
Ir31   O46     1.967   .     S
Ir31   O51     2.002   .     S
Ir31   O21     2.002   1_655 S
Ir31   O56     1.967   .     S
Ir32   O43     2.002   .     S
Ir32   O13     2.002   1_655 S
Ir32   O107    1.967   1_545 S
Ir32   O52     2.002   .     S
Ir32   O22     2.002   1_655 S
Ir32   O57     1.967   .     S
Ir33   O44     2.002   .     S
Ir33   O14     2.002   1_655 S
Ir33   O48     1.967   .     S
Ir33   O53     2.002   .     S
Ir33   O23     2.002   1_655 S
Ir33   O58     1.967   .     S
Ir34   O45     2.002   .     S
Ir34   O15     2.002   1_655 S
Ir34   O109    1.967   1_545 S
Ir34   O54     2.002   .     S
Ir34   O24     2.002   1_655 S
Ir34   O59     1.967   .     S
Ir35   O50     1.967   .     S
Ir35   O55     2.002   .     S
Ir35   O25     2.002   1_655 S
Ir35   O60     1.967   .     S
Ir36   O41     1.967   .     S
Ir36   O46     2.002   .     S
Ir36   O52     1.967   .     S
Ir36   O116    2.002   1_545 S
Ir36   O86     2.002   1_545 S
Ir37   O42     1.967   .     S
Ir37   O47     2.002   .     S
Ir37   O53     1.967   .     S
Ir37   O57     2.002   .     S
Ir38   O43     1.967   .     S
Ir38   O48     2.002   .     S
Ir38   O54     1.967   .     S
Ir38   O118    2.002   1_545 S
Ir38   O88     2.002   1_545 S
Ir39   O44     1.967   .     S
Ir39   O49     2.002   .     S
Ir39   O55     1.967   .     S
Ir39   O59     2.002   .     S
Ir40   O45     1.967   .     S
Ir40   O50     2.002   .     S
Ir40   O120    2.002   1_545 S
Ir40   O90     2.002   1_545 S
O46    Ir6     2.002   1_655 S
O47    Ir92    1.967   .     S
O47    Ir7     2.002   1_655 S
O48    Ir8     2.002   1_655 S
O49    Ir94    1.967   .     S
O49    Ir9     2.002   1_655 S
O50    Ir10    2.002   1_655 S
O56    Ir96    2.002   .     S
O56    Ir66    2.002   1_655 S
O57    Ir7     2.002   1_655 S
O58    Ir98    2.002   .     S
O58    Ir68    2.002   1_655 S
O59    Ir9     2.002   1_655 S
O60    Ir100   2.002   .     S
O60    Ir70    2.002   1_655 S
Ir61   O72     2.002   .     S
Ir61   O102    2.002   .     S
Ir61   O76     1.967   .     S
Ir61   O81     2.002   .     S
Ir61   O111    2.002   .     S
Ir61   O86     1.967   .     S
Ir62   O73     2.002   .     S
Ir62   O103    2.002   .     S
Ir62   O82     2.002   .     S
Ir62   O112    2.002   .     S
Ir62   O87     1.967   .     S
Ir63   O74     2.002   .     S
Ir63   O104    2.002   .     S
Ir63   O78     1.967   .     S
Ir63   O83     2.002   .     S
Ir63   O113    2.002   .     S
Ir63   O88     1.967   .     S
Ir64   O75     2.002   .     S
Ir64   O105    2.002   .     S
Ir64   O84     2.002   .     S
Ir64   O114    2.002   .     S
Ir64   O89     1.967   .     S
Ir65   O80     1.967   .     S
Ir65   O85     2.002   .     S
Ir65   O115    2.002   .     S
Ir65   O90     1.967   .     S
Ir66   O71     1.967   .     S
Ir66   O76     2.002   .     S
Ir66   O106    2.002   1_455 S
Ir66   O82     1.967   .     S
Ir66   O56     2.002   1_455 S
Ir67   O72     1.967   .     S
Ir67   O77     2.002   .     S
Ir67   O107    2.002   1_455 S
Ir67   O83     1.967   .     S
Ir67   O87     2.002   .     S
Ir67   O117    2.002   1_455 S
Ir68   O73     1.967   .     S
Ir68   O78     2.002   .     S
Ir68   O108    2.002   1_455 S
Ir68   O84     1.967   .     S
Ir68   O58     2.002   1_455 S
Ir69   O74     1.967   .     S
Ir69   O79     2.002   .     S
Ir69   O109    2.002   1_455 S
Ir69   O85     1.967   .     S
Ir69   O89     2.002   .     S
Ir69   O119    2.002   1_455 S
Ir70   O75     1.967   .     S
Ir70   O80     2.002   .     S
Ir70   O110    2.002   1_455 S
Ir70   O60     2.002   1_455 S
O72    Ir91    2.002   1_455 S
O73    Ir92    2.002   1_455 S
O74    Ir93    2.002   1_455 S
O75    Ir94    2.002   1_455 S
O76    Ir96    2.002   .     S
O77    Ir2     1.967   1_565 S
O77    Ir97    2.002   .     S
O78    Ir98    2.002   .     S
O79    Ir4     1.967   1_565 S
O79    Ir99    2.002   .     S
O80    Ir100   2.002   .     S
O81    Ir91    2.002   1_455 S
O82    Ir92    2.002   1_455 S
O83    Ir93    2.002   1_455 S
O84    Ir94    2.002   1_455 S
O85    Ir95    2.002   1_455 S
O86    Ir6     2.002   1_565 S
O86    Ir36    2.002   1_565 S
O87    Ir97    2.002   .     S
O88    Ir8     2.002   1_565 S
O88    Ir38    2.002   1_565 S
O89    Ir99    2.002   .     S
O90    Ir10    2.002   1_565 S
O90    Ir40    2.002   1_565 S
Ir91   O102    2.002   .     S
Ir91   O72     2.002   1_655 S
Ir91   O106    1.967   .     S
Ir91   O111    2.002   .     S
Ir91   O81     2.002   1_655 S
Ir91   O116    1.967   .     S
Ir92   O103    2.002   .     S
Ir92   O73     2.002   1_655 S
Ir92   O112    2.002   .     S
Ir92   O82     2.002   1_655 S
Ir92   O117    1.967   .     S
Ir93   O104    2.002   .     S
Ir93   O74     2.002   1_655 S
Ir93   O108    1.967   .     S
Ir93   O113    2.002   .     S
Ir93   O83     2.002   1_655 S
Ir93   O118    1.967   .     S
Ir94   O105    2.002   .     S
Ir94   O75     2.002   1_655 S
Ir94   O114    2.002   .     S
Ir94   O84     2.002   1_655 S
Ir94   O119    1.967   .     S
Ir95   O110    1.967   .     S
Ir95   O115    2.002   .     S
Ir95   O85     2.002   1_655 S
Ir95   O120    1.967   .     S
Ir96   O101    1.967   .     S
Ir96   O106    2.002   .     S
Ir96   O112    1.967   .     S
Ir97   O102    1.967   .     S
Ir97   O107    2.002   .     S
Ir97   O113    1.967   .     S
Ir97   O117    2.002   .     S
Ir98   O103    1.967   .     S
Ir98   O108    2.002   .     S
Ir98   O114    1.967   .     S
Ir99   O104    1.967   .     S
Ir99   O109    2.002   .     S
Ir99   O115    1.967   .     S
Ir99   O119    2.002   .     S
Ir100  O105    1.967   .     S
Ir100  O110    2.002   .     S
O106   Ir66    2.002   1_655 S
O107   Ir32    1.967   1_565 S
O107   Ir67    2.002   1_655 S
O108   Ir68    2.002   1_655 S
O109   Ir34    1.967   1_565 S
O109   Ir69    2.002   1_655 S
O110   Ir70    2.002   1_655 S
O116   Ir36    2.002   1_565 S
O116   Ir6     2.002   1_665 S
O117   Ir67    2.002   1_655 S
O118   Ir38    2.002   1_565 S
O118   Ir8     2.002   1_665 S
O119   Ir69    2.002   1_655 S
O120   Ir40    2.002   1_565 S
O120   Ir10    2.002   1_665 S
